12
benzene
C        8.39528138       6.66748365       5.00000291
C        8.51925793       8.06102240       5.00000509
C        7.12645219       6.07808103       5.00000441
C        5.98160072       6.88221755       5.00000464
C        6.10557756       8.27575669       5.00000369
C        7.37440623       8.86515917       5.00000734
H        9.50085998       8.51699940       5.00000031
H        9.28097172       6.04538232       5.00000427
H        7.03053864       5.00000000       5.00000036
H        5.00000000       6.42623909       5.00000439
H        5.21988789       8.89785938       5.00000000
H        7.47031658       9.94324034       5.00000253
