10
Properties=species:S:1:pos:R:3 opt=T geom=T pbc="F F F"
C       -1.42344071       0.49114306       0.00000000
C       -0.72648190      -0.71602512       0.00000000
C        0.66743581      -0.71602518       0.00000000
C        1.36439471       0.49114294       0.00000000
C        0.66743590       1.69831112       0.00000000
C       -0.72648181       1.69831118       0.00000000
H       -1.26869014       2.63744364       0.00000000
H        1.20964431       2.63744355       0.00000000
H        1.20964414      -1.65515764       0.00000000
H       -1.26869031      -1.65515755       0.00000000
