18
Properties=species:S:1:pos:R:3 napthalene=T pbc="F F F"
C        0.00000000       1.42000000       0.00000000
C        0.00000000       0.00000000       0.00000000
C        1.22975600       2.13000000       0.00000000
C        2.45951200       1.42000000       0.00000000
C        2.45951200       0.00000000       0.00000000
C        1.22975600      -0.71000000       0.00000000
C        3.68926800      -0.71000000       0.00000000
C        4.91902400       0.00000000       0.00000000
C        4.91902400       1.42000000       0.00000000
H       -0.98726900       1.99000000       0.00000000
H       -0.98726900      -0.57000000       0.00000000
H        1.22975600       3.27000000       0.00000000
H        1.22975600      -1.85000000       0.00000000
H        3.68926800      -1.85000000       0.00000000
H        3.68926800       3.27000000       0.00000000
H        5.90629300       1.99000000       0.00000000
H        5.90629300      -0.57000000       0.00000000
C        3.68926800       2.13000000       0.00000000
